orig_data/case56.m
function G = case56
%case47     Power flow data for SCE 46 bus test case.


%% system MVA and kV base
G.baseMVA = 1;
G.basekV = 12;
G.capacitor=[19 21 30 53];
G.PV=45;


%% bus data
%	i	p       q
G.bus = [
	1	0      0%-6
	2   0    0
    3   0.057       0%-1.2
    4	0       0
	5   0.121       0
    6   0.049       0
    7	0.053       0
	8   0.047       0
    9   0.068       0
    10  0.048       0
    11	0.067    0
	12  0.094    0
    13  0       0
    14	0.057	0
	15  0       0
    16  0.053   0
    17  0.057    0
	18  0.112   0
    19  0.087   0% -0.6
    20  0       0
    21	0	     -0.6
	22  0.063    0
    23  0      0
    24	0.135      0
	25  0.100    0
    26  0.0     0
    27	0.048       0 %large value
	28  0.038    0    %large value
    29  0.044    0
    30  0      0% -0.6
    31	0.053    0
	32  0.223    0
    33  0.123   0
    34	0.067     0
	35  0.094       0
    36  0.097    0
    37	0.281       0%-1.8
	38  0.117    0
    39  0.131    0
    40  0.030    0
    41	0.046    0
	42  0.054    0
    43  0.083       0
    44	0.057    0
	45  -5     0
    46  0.134    0
    47	0.045       0%-1.8
    48  0.196   0
    49  0      0
    50  0.045  0
    51  0      0
    52  0.315   0
    53  0      0%-0.6
    54  0.061   0
    55   0.055   0
    56   0.130   0
];



%% branch data
%	fr	to	r       x
G.branch = [
	1	2	0.160	0.388
    2   3   0.824   0.315
    2   4   0.144   0.349
    4   5   1.026   0.421
    4   6  0.741   0.466
    4   7  0.528   0.468
    7   8   0.358   0.314
    8   9  2.032   0.798
    8   10  0.502   0.441
    10  11  0.372   0.327
    11   12   1.431   0.999
    11   13  0.429   0.377
    13   14   0.671   0.257
    13   15  0.457   0.401
    15   16  1.008   0.385
    15   17  0.153   0.134
    17   18  0.971   0.722
    18   19   1.885   0.721
    4   20  0.138   0.334
    20   21  0.251   0.096
    21  22  1.818   0.695
    20  23  0.225   0.542
    23  24  0.127   0.028
    23  25  0.284   0.68
    25  26  0.171   0.414
    26  27  0.414   0.386
    27  28  0.210   0.196
    28  29  0.395   0.369
    29  30  0.248   0.232
    30  31  0.279   0.260
    26  32  0.205   0.495
    32  33  0.263   0.073
    32  34  0.071   0.171
    34  35  0.625   0.273
    34  36  0.510   0.209
    36  37  2.018   0.829
    34  38  1.062   0.406
    38  39  0.610   0.238
    39  40  2.349   0.964
    34  41  0.115   0.278  
    41  42  0.159   0.384
    42  43  0.934   0.383
    42  44  0.506   0.163
    42  45  0.095   0.195
    42  46  1.915   0.769
    41  47  0.157   0.379
    47  48  1.641  0.670
    47  49  0.081  0.196
    49  50  1.727  0.709
    49  51  0.112  0.270
    51  52  0.674  0.275
    51  53  0.070  0.170
    53  54  2.041 0.780
    53  55  0.813  0.334
    53  56 0.141 0.340
];
